%%%%%%%%%%%%%%%%%%%%%%%%%%%%%%%%%%%%%%%%%%%%%%%%%%%%%%%%%%%%%%%%%%%%%%%%%%%%%%%%
%                                                                              %
% SU2 configuration file                                                       %
% Case description: Unsteady incompressible laminar flow around a cylinder     %
% Author: Nijso Beishuizen                                                     % 
% Institution:                                                                 %
% Date: 2025.01.01                                                             %
% File Version 8.0.1 "Harrier"                                                 %
%                                                                              %
%%%%%%%%%%%%%%%%%%%%%%%%%%%%%%%%%%%%%%%%%%%%%%%%%%%%%%%%%%%%%%%%%%%%%%%%%%%%%%%%

% ------------- DIRECT, ADJOINT, AND LINEARIZED PROBLEM DEFINITION ------------%
%
SOLVER= INC_NAVIER_STOKES
INC_NONDIM= DIMENSIONAL
%
KIND_TURB_MODEL= NONE
%
RESTART_SOL= NO 
%
% monitoring points in the cylinder wake
CUSTOM_OUTPUTS= 'velocity : Macro{sqrt(pow(VELOCITY_X, 2) + pow(VELOCITY_Y, 2) )};\
                 probe1 : Probe{$velocity}[0.15, 0.0]'
%
READ_BINARY_RESTART= YES
%
RESTART_ITER= 2
%
% ------------------------- UNSTEADY SIMULATION -------------------------------%
%
TIME_DOMAIN = YES
%
TIME_MARCHING= DUAL_TIME_STEPPING-2ND_ORDER
%
TIME_STEP= 0.01
%
MAX_TIME=25.00
%
INNER_ITER= 10
%
% ---------------- INCOMPRESSIBLE FLOW CONDITION DEFINITION -------------------%
%
INC_DENSITY_INIT= 1.0
INC_VELOCITY_INIT= ( 0.12, 0.0, 0.0 )
%
% --------------------------- VISCOSITY MODEL ---------------------------------%
%
VISCOSITY_MODEL= CONSTANT_VISCOSITY
MU_CONSTANT= 1.0e-5
REF_LENGTH= 0.01
REF_AREA= 0.01
%
% -------------------- BOUNDARY CONDITION DEFINITION --------------------------%
%
MARKER_HEATFLUX= ( cylinder, 0.0 )
MARKER_FAR= ( farfield_in,farfield_side,farfield_out )
MARKER_MONITORING= ( cylinder )
%
% ------------- COMMON PARAMETERS DEFINING THE NUMERICAL METHOD ---------------%
%
NUM_METHOD_GRAD= GREEN_GAUSS
CFL_NUMBER= 200.0
CFL_ADAPT= NO
TIME_ITER=11
%
% ------------------------ LINEAR SOLVER DEFINITION ---------------------------%
%
LINEAR_SOLVER= FGMRES
LINEAR_SOLVER_PREC= LU_SGS
LINEAR_SOLVER_ERROR= 1E-10
LINEAR_SOLVER_ITER= 5
%
% -------------------------- MULTIGRID PARAMETERS -----------------------------%
%
MGLEVEL= 0
%
% -------------------- FLOW NUMERICAL METHOD DEFINITION -----------------------%
%
CONV_NUM_METHOD_FLOW= FDS
MUSCL_FLOW= YES
SLOPE_LIMITER_FLOW= NONE
TIME_DISCRE_FLOW= EULER_IMPLICIT
%
% --------------------------- CONVERGENCE PARAMETERS --------------------------%
%
CONV_RESIDUAL_MINVAL= -10
CONV_STARTITER= 10
CONV_CAUCHY_ELEMS= 100
CONV_CAUCHY_EPS= 1E-6
%
% ------------------------- INPUT/OUTPUT INFORMATION --------------------------%
%
MESH_FILENAME= cylinder_wake.su2
MESH_FORMAT= SU2
SOLUTION_FILENAME= restart_flow
TABULAR_FORMAT= CSV
CONV_FILENAME= history
RESTART_FILENAME= restart_flow
VOLUME_FILENAME= flow
SURFACE_FILENAME= surface_flow
OUTPUT_FILES= (RESTART, PARAVIEW_MULTIBLOCK)
OUTPUT_WRT_FREQ= (1000, 50)
SCREEN_OUTPUT= (TIME_ITER, RMS_VELOCITY-X, RMS_VELOCITY-Y, RMS_PRESSURE, LIFT, DRAG)
VOLUME_OUTPUT= (SOLUTION, PRIMITIVE)
HISTORY_OUTPUT= (TIME_ITER, CUR_TIME, RMS_RES, LIST, DRAG, LIFT, SURFACE_STATIC_PRESSURE, CUSTOM)
