%%%%%%%%%%%%%%%%%%%%%%%%%%%%%%%%%%%%%%%%%%%%%%%%%%%%%%%%%%%%%%%%%%%%%%%%%%%%%%%%%%%%%
%                                                                                   %
% SU2 configuration file                                                            %
% Case description: Incompressible Kenics static mixer for a methane-air gas mixture%
%                   1 transport equation for methane is being solved. Composition   %
%                   dependent fluid properties are being added. Therefore, methane  %
%                   is an active scalar in the mean flow.                           %
% Author: C. Morales                                                                %
% Institution: TU Eindhoven                                                         %
% Date: 2022/05/23                                                                  %
% File Version 7.5.0 "Blackbird"                                                    %
%                                                                                   %
%%%%%%%%%%%%%%%%%%%%%%%%%%%%%%%%%%%%%%%%%%%%%%%%%%%%%%%%%%%%%%%%%%%%%%%%%%%%%%%%%%%%%

% ------------- DIRECT, ADJOINT, AND LINEARIZED PROBLEM DEFINITION ------------%
%
SOLVER= INC_RANS
KIND_TURB_MODEL= SST
SST_OPTIONS= V1994m
%
% ---------------- INCOMPRESSIBLE FLOW CONDITION DEFINITION -------------------%
%
INC_DENSITY_MODEL= VARIABLE
INC_DENSITY_INIT= 0.657
%
INC_VELOCITY_INIT= ( 0.0, 0.0, 5.0 )
%
INC_ENERGY_EQUATION= NO
INC_TEMPERATURE_INIT= 300.0
%
INC_NONDIM= DIMENSIONAL
%
% -------------------- FLUID PROPERTIES ------------------------------------- %
%
FLUID_MODEL= FLUID_MIXTURE
%
MOLECULAR_WEIGHT= 16.043, 28.960
%
SPECIFIC_HEAT_CP = 2224.43, 1009.39
%
CONDUCTIVITY_MODEL= CONSTANT_CONDUCTIVITY
THERMAL_CONDUCTIVITY_CONSTANT= 0.0357, 0.0258
%
PRANDTL_LAM= 0.72, 0.72
TURBULENT_CONDUCTIVITY_MODEL= CONSTANT_PRANDTL_TURB
PRANDTL_TURB= 0.90, 0.90
%
% --------------------------- VISCOSITY MODEL ---------------------------------%
%
VISCOSITY_MODEL= CONSTANT_VISCOSITY
%
MU_CONSTANT= 1.1102E-05, 1.8551E-05 
% 
MIXING_VISCOSITY_MODEL = WILKE
%
% -------------------- BOUNDARY CONDITION DEFINITION --------------------------%
%
MARKER_HEATFLUX= ( inner_wall, 0.0, blade_1, 0.0, blade_2, 0.0, blade_3, 0.0, outer_wall, 0.0 )
%
SPECIFIED_INLET_PROFILE= NO
%
INC_INLET_TYPE=  VELOCITY_INLET VELOCITY_INLET
MARKER_INLET= ( inlet_gas, 300, 5.0, 0.0,  0.0, 1.0, inlet_air, 300, 5.0, 0.0, 0.0, 1.0 )

MARKER_INLET_SPECIES= ( inlet_gas, 1.0, inlet_air, 0.0 )
%
MARKER_INLET_TURBULENT= ( inlet_gas, 0.05, 10, inlet_air, 0.05, 10 )
INC_OUTLET_TYPE= PRESSURE_OUTLET
MARKER_OUTLET= ( outlet, 0.0 )
%
% ------------- COMMON PARAMETERS DEFINING THE NUMERICAL METHOD ---------------%
%
NUM_METHOD_GRAD= WEIGHTED_LEAST_SQUARES
%
CFL_NUMBER= 20
CFL_REDUCTION_SPECIES= 0.5
CFL_REDUCTION_TURB= 1.0
%
ITER= 7000
%
% ------------------------ LINEAR SOLVER DEFINITION ---------------------------%
%
LINEAR_SOLVER= FGMRES
LINEAR_SOLVER_PREC= ILU
LINEAR_SOLVER_ERROR= 1E-5
LINEAR_SOLVER_ITER= 5
%
% -------------------- FLOW NUMERICAL METHOD DEFINITION -----------------------%
%
CONV_NUM_METHOD_FLOW= FDS
MUSCL_FLOW= YES
SLOPE_LIMITER_FLOW = NONE
TIME_DISCRE_FLOW= EULER_IMPLICIT
%
% -------------------- SCALAR TRANSPORT ---------------------------------------%
%
KIND_SCALAR_MODEL= SPECIES_TRANSPORT
%
DIFFUSIVITY_MODEL = UNITY_LEWIS
%
SCHMIDT_NUMBER_TURBULENT= 0.7
%
CONV_NUM_METHOD_SPECIES= BOUNDED_SCALAR
MUSCL_SPECIES= NO
SLOPE_LIMITER_SPECIES = NONE
%
TIME_DISCRE_SPECIES= EULER_IMPLICIT
%
SPECIES_INIT= 1.0 
SPECIES_CLIPPING= NO
SPECIES_CLIPPING_MIN= 0.0
SPECIES_CLIPPING_MAX= 1.0
%
% -------------------- TURBULENT TRANSPORT ---------------------------------------%
%
CONV_NUM_METHOD_TURB= BOUNDED_SCALAR
MUSCL_TURB= NO
%
% --------------------------- CONVERGENCE PARAMETERS --------------------------%
%
CONV_FIELD= RMS_PRESSURE, RMS_VELOCITY-X, RMS_VELOCITY-Y, RMS_VELOCITY-Z, RMS_TKE, RMS_SPECIES
CONV_RESIDUAL_MINVAL= -16
CONV_STARTITER= 10
%
% ------------------------- INPUT/OUTPUT INFORMATION --------------------------%
%
MESH_FILENAME= kenics.su2
%
SCREEN_OUTPUT= INNER_ITER WALL_TIME RMS_PRESSURE RMS_VELOCITY-X RMS_VELOCITY-Y RMS_VELOCITY-Z RMS_TKE RMS_DISSIPATION RMS_SPECIES_0 LINSOL_ITER LINSOL_RESIDUAL LINSOL_ITER_TURB LINSOL_RESIDUAL_TURB LINSOL_ITER_SPECIES LINSOL_RESIDUAL_SPECIES SURFACE_SPECIES_VARIANCE SURFACE_TOTAL_PRESSURE
SCREEN_WRT_FREQ_INNER= 10
%
HISTORY_OUTPUT= ITER RMS_RES LINSOL SPECIES_COEFF SPECIES_COEFF_SURF SURFACE_TOTAL_PRESSURE
CONV_FILENAME= history
MARKER_ANALYZE= inlet_gas,inlet_air, outlet
MARKER_ANALYZE_AVERAGE= AREA
%
OUTPUT_FILES= RESTART_ASCII, PARAVIEW_MULTIBLOCK
VOLUME_OUTPUT= RESIDUAL, PRIMITIVE
OUTPUT_WRT_FREQ= 100
%
READ_BINARY_RESTART= NO
RESTART_FILENAME= restart
SOLUTION_FILENAME= solution
%
WRT_PERFORMANCE= YES
OUTPUT_PRECISION= 16
